10
 Properties=species:S:1:pos:R:3
C      2.98362    0.10214   16.98594
O      2.98156    0.18140   18.27423
O     13.03201    0.12322   16.70672
H     12.51179   -0.18429   17.43973
N     11.63477    8.43314   16.89900
H     11.12983    7.58952   17.20599
C     12.58272    8.43154   17.30185
H     13.10726    9.30793   16.98294
H     12.51641    8.42437   18.36977
H     13.10924    7.56066   16.97134
